<?xml version="1.0" encoding="UTF-8"?>

<!-- generated on 2023-09-11 16:37:15 by Eclipse SUMO netedit Version v1_15_0+1785-8811fec055f
-->

<routes xmlns:xsi="http://www.w3.org/2001/XMLSchema-instance" xsi:noNamespaceSchemaLocation="http://sumo.dlr.de/xsd/routes_file.xsd">
    <!-- VTypes -->
    <vType id="aggressive" length="5.00" maxSpeed="10.62" vClass="passenger" color="orange" carFollowModel="IDM" lcStrategic="-1" lcCooperative="-1" lcSpeedGain="0" lcKeepRight="0" lcOvertakeRight="0"/>
    <vType id="noncav" length="5.00" maxSpeed="10.62" vClass="passenger" color="white" carFollowModel="IDM" lcStrategic="-1" lcCooperative="-1" lcSpeedGain="0" lcKeepRight="0" lcOvertakeRight="0"/>
    <vType id="cooperative" length="5.00" maxSpeed="10.62" vClass="passenger" color="blue" carFollowModel="IDM" lcStrategic="-1" lcCooperative="-1" lcSpeedGain="0" lcKeepRight="0" lcOvertakeRight="0"/>
    <vType id="secondLane" length="5.00" maxSpeed="12.21" vClass="passenger" color="yellow" carFollowModel="IDM" lcStrategic="-1" lcCooperative="-1" lcSpeedGain="0" lcKeepRight="0" lcOvertakeRight="0"/>
    <vType id="ego" length="5.00" maxSpeed="12.21" vClass="passenger" color="red" carFollowModel="IDM"/>
    <!-- Vehicles, persons and containers (sorted by depart) -->
    <flow id="f_0" type="secondLane" begin="0.00" departLane="1" from="E2" to="E0" end="100.00" probability="0.47"/>
    <flow id="f_1" type="aggressive" begin="0.00" departLane="0" from="E2" to="E0" number="1800" probability="0.05"/>
    <flow id="f_2" type="cooperative" begin="0.00" departLane="0" from="E2" to="E0" number="1800" probability="0.05"/>
    <flow id="n_0" type="noncav" begin="0.00" departLane="0" from="E2" to="E0" number="1800" probability="0.05"/>
    <flow id="f_3" type="secondLane" begin="0.00" departLane="2" from="E2" to="E0" via="E3" end="3600.00" probability="0.46"/>
    <flow id="f_4" type="secondLane" begin="0.00" departLane="3" from="E2" to="E0" via="E3" end="3600.00" probability="0.44"/>
    <flow id="f_5" type="secondLane" begin="0.00" departLane="4" from="E2" to="E0" via="E3" end="3600.00" probability="0.46"/>
    <trip id="t_0" type= "ego" depart="20.00" departLane="0" arrivalLane="0" color="red" from="E4" to="E0"/>
</routes>
